<?xml version="1.0" encoding="UTF-8"?>

<!-- generated on 2026-05-24 03:28:01.484823 by randomTrips.py UNKNOWN
<configuration>
    <net-file value="/home/gta/airam/MinicursoAprendizadoFederadoVeicularSBRC2026/mobility/raw/scenarios/0/manhattan_net_2.xml"/>
    <output-trip-file value="/home/gta/airam/MinicursoAprendizadoFederadoVeicularSBRC2026/mobility/raw/scenarios/0/Krauss/3/flows_file_Krauss_3_2.xml"/>
    <trip-attributes value="departPos=&quot;random&quot; departSpeed=&quot;max&quot;"/>
    <seed value="2"/>
    <random value="True"/>
    <jtrrouter value="True"/>
    <end value="1.0"/>
    <flows value="3"/>
</configuration>
-->

<!-- generated on 2026-05-24 03:28:01 by Eclipse SUMO duarouter Version 1.24.0
<duarouterConfiguration xmlns:xsi="http://www.w3.org/2001/XMLSchema-instance" xsi:noNamespaceSchemaLocation="http://sumo.dlr.de/xsd/duarouterConfiguration.xsd">

    <input>
        <net-file value="/home/gta/airam/MinicursoAprendizadoFederadoVeicularSBRC2026/mobility/raw/scenarios/0/manhattan_net_2.xml"/>
        <route-files value="/home/gta/airam/MinicursoAprendizadoFederadoVeicularSBRC2026/mobility/raw/scenarios/0/Krauss/3/flows_file_Krauss_3_2.xml"/>
    </input>

    <output>
        <output-file value="routes.rou.xml"/>
        <alternatives-output value="NUL"/>
    </output>

    <time>
        <begin value="0.0"/>
        <end value="1.0"/>
    </time>

    <report>
        <no-warnings value="true"/>
        <ignore-errors value="true"/>
        <no-step-log value="true"/>
    </report>

</duarouterConfiguration>
-->

<routes xmlns:xsi="http://www.w3.org/2001/XMLSchema-instance" xsi:noNamespaceSchemaLocation="http://sumo.dlr.de/xsd/routes_file.xsd">
    <vehicle id="0.0" depart="0.00" departPos="random" departSpeed="max">
        <route edges="A0B0"/>
    </vehicle>
    <vehicle id="1.0" depart="0.00" departPos="random" departSpeed="max">
        <route edges="A0B0"/>
    </vehicle>
    <vehicle id="2.0" depart="0.00" departPos="random" departSpeed="max">
        <route edges="A1A0"/>
    </vehicle>
</routes>
