<?xml version="1.0" encoding="UTF-8"?>

<!-- generated on 2026-03-24 20:03:35.199644 by generateContinuousRerouters.py UNKNOWN
<configuration>
    <net-file value="/home/gta/airam/MinicursoAprendizadoFederadoVeicularSBRC2026/mobility/raw/scenarios/0/manhattan_net_2.xml"/>
    <output-file value="/home/gta/airam/MinicursoAprendizadoFederadoVeicularSBRC2026/mobility/raw/scenarios/0/Krauss/5/manhatan_rerouter_Krauss_5_0.add.xml"/>
</configuration>
-->

<additional xmlns:xsi="http://www.w3.org/2001/XMLSchema-instance" xsi:noNamespaceSchemaLocation="http://sumo.dlr.de/xsd/additional_file.xsd">
    <route id="A1A0_A0A1" edges="A1A0 A0A1"/>
    <route id="A1A0_A0B0" edges="A1A0 A0B0"/>
    <rerouter id="rr_A1A0" edges="A1A0">
        <interval begin="0" end="3600">
            <routeProbReroute id="A1A0_A0A1" probability="0"/>
            <routeProbReroute id="A1A0_A0B0" probability="20.0"/>
        </interval>
    </rerouter>
    <route id="B0A0_A0A1" edges="B0A0 A0A1"/>
    <route id="B0A0_A0B0" edges="B0A0 A0B0"/>
    <rerouter id="rr_B0A0" edges="B0A0">
        <interval begin="0" end="3600">
            <routeProbReroute id="B0A0_A0A1" probability="30.0"/>
            <routeProbReroute id="B0A0_A0B0" probability="0"/>
        </interval>
    </rerouter>
    <route id="A0A1_A1A0" edges="A0A1 A1A0"/>
    <route id="A0A1_A1B1" edges="A0A1 A1B1"/>
    <rerouter id="rr_A0A1" edges="A0A1">
        <interval begin="0" end="3600">
            <routeProbReroute id="A0A1_A1A0" probability="0"/>
            <routeProbReroute id="A0A1_A1B1" probability="30.0"/>
        </interval>
    </rerouter>
    <route id="B1A1_A1A0" edges="B1A1 A1A0"/>
    <route id="B1A1_A1B1" edges="B1A1 A1B1"/>
    <rerouter id="rr_B1A1" edges="B1A1">
        <interval begin="0" end="3600">
            <routeProbReroute id="B1A1_A1A0" probability="20.0"/>
            <routeProbReroute id="B1A1_A1B1" probability="0"/>
        </interval>
    </rerouter>
    <route id="A0B0_B0A0" edges="A0B0 B0A0"/>
    <route id="A0B0_B0B1" edges="A0B0 B0B1"/>
    <rerouter id="rr_A0B0" edges="A0B0">
        <interval begin="0" end="3600">
            <routeProbReroute id="A0B0_B0A0" probability="0"/>
            <routeProbReroute id="A0B0_B0B1" probability="20.0"/>
        </interval>
    </rerouter>
    <route id="B1B0_B0A0" edges="B1B0 B0A0"/>
    <route id="B1B0_B0B1" edges="B1B0 B0B1"/>
    <rerouter id="rr_B1B0" edges="B1B0">
        <interval begin="0" end="3600">
            <routeProbReroute id="B1B0_B0A0" probability="30.0"/>
            <routeProbReroute id="B1B0_B0B1" probability="0"/>
        </interval>
    </rerouter>
    <route id="A1B1_B1A1" edges="A1B1 B1A1"/>
    <route id="A1B1_B1B0" edges="A1B1 B1B0"/>
    <rerouter id="rr_A1B1" edges="A1B1">
        <interval begin="0" end="3600">
            <routeProbReroute id="A1B1_B1A1" probability="0"/>
            <routeProbReroute id="A1B1_B1B0" probability="30.0"/>
        </interval>
    </rerouter>
    <route id="B0B1_B1A1" edges="B0B1 B1A1"/>
    <route id="B0B1_B1B0" edges="B0B1 B1B0"/>
    <rerouter id="rr_B0B1" edges="B0B1">
        <interval begin="0" end="3600">
            <routeProbReroute id="B0B1_B1A1" probability="20.0"/>
            <routeProbReroute id="B0B1_B1B0" probability="0"/>
        </interval>
    </rerouter>
</additional>
